Info: SIMULATION PARAMETERS:
Info: TIMESTEP               1
Info: NUMBER OF STEPS        0
Info: STEPS PER CYCLE        20
Info: FIRST LDB TIMESTEP     100
Info: LAST LDB TIMESTEP     -1
Info: HOM BACKGROUND SCALING 1
Info: MIN ATOMS PER PATCH    40
Info: INITIAL TEMPERATURE    298
Info: CENTER OF MASS MOVING INITIALLY? NO
Info: DIELECTRIC             80
Info: EXCLUDE                SCALED ONE-FOUR
Info: 1-4 ELECTROSTATICS SCALED BY 1
Info: MODIFIED 1-4 VDW PARAMETERS WILL BE USED
Info: DCD FILENAME           simulation-step1.dcd
Info: DCD FREQUENCY          1000
Info: DCD FIRST STEP         1000
Info: NO EXTENDED SYSTEM TRAJECTORY OUTPUT
Info: NO VELOCITY DCD OUTPUT
Info: NO FORCE DCD OUTPUT
Info: OUTPUT FILENAME        simulation-step1
Info: BINARY OUTPUT FILES WILL BE USED
Info: NO RESTART FILE
Info: SWITCHING ACTIVE
Info: SWITCHING ON           9
Info: SWITCHING OFF          10
Info: PAIRLIST DISTANCE      11
Info: PAIRLIST SHRINK RATE   0.01
Info: PAIRLIST GROW RATE     0.01
Info: PAIRLIST TRIGGER       0.3
Info: PAIRLISTS PER CYCLE    2
Info: PAIRLISTS ENABLED
Info: MARGIN                 0
Info: HYDROGEN GROUP CUTOFF  2.5
Info: PATCH DIMENSION        13.5
Info: ENERGY OUTPUT STEPS    100
Info: CROSSTERM ENERGY INCLUDED IN DIHEDRAL
Info: TIMING OUTPUT STEPS    1000
Info: PRESSURE OUTPUT STEPS  100
Info: GRID FORCE ACTIVE
Info:  Please include this reference in published work using
Info:  the Gridforce module of NAMD: David Wells, Volha Abramkina,
Info:  and Aleksei Aksimentiev, J. Chem. Phys. 127:125101-10 (2007).
Info: MGRIDFORCE key 0
Info:            Potfile BAZ2BA-x481-event_1_1-BDC_038_map,native-grid.dx
Info:            Scale 0.3 0.3 0.3
Info:            File BAZ2BA-x481-pandda-input_altered-grid.pdb
Info:            Col O
Info:            ChargeCol B
Info:            VOffset 0 0 0
Info:            Continuous K1 FALSE
Info:            Continuous K2 FALSE
Info:            Continuous K3 FALSE
Info:            Volts FALSE
Info:            Gridforce-Lite FALSE
Info:            Gridforce-CheckSize TRUE
Info: LANGEVIN DYNAMICS ACTIVE
Info: LANGEVIN TEMPERATURE   298
Info: LANGEVIN USING BBK INTEGRATOR
Info: LANGEVIN DAMPING COEFFICIENT IS 5 INVERSE PS
Info: LANGEVIN DYNAMICS NOT APPLIED TO HYDROGENS
Info: USING VERLET I (r-RESPA) MTS SCHEME.
Info: C1 SPLITTING OF LONG RANGE ELECTROSTATICS
Info: PLACING ATOMS IN PATCHES BY HYDROGEN GROUPS
Info: RIGID BONDS TO HYDROGEN : WATER
Info:         ERROR TOLERANCE : 1e-08
Info:          MAX ITERATIONS : 100
Info: RIGID WATER USING SETTLE ALGORITHM
Info: NONBONDED FORCES EVALUATED EVERY 2 STEPS
Info: RANDOM NUMBER SEED     1651244586
Info: USE HYDROGEN BONDS?    NO
Info: COORDINATE PDB         BAZ2BA-x481-pandda-input_altered_autopsf.pdb
Info: STRUCTURE FILE         BAZ2BA-x481-pandda-input_altered_autopsf.psf
Info: PARAMETER file: CHARMM format!
Info: PARAMETERS             /home/morphinator_software/vmd-1.93/lib/plugins/noarch/tcl/readcharmmpar1.3/par_all36_lipid.prm
Info: PARAMETERS             /home/morphinator_software/vmd-1.93/lib/plugins/noarch/tcl/readcharmmpar1.3/par_all36_prot.prm
Info: PARAMETERS             /home/morphinator_software/vmd-1.93/lib/plugins/noarch/tcl/readcharmmpar1.3/par_all36_carb.prm
Info: PARAMETERS             /home/morphinator_software/vmd-1.93/lib/plugins/noarch/tcl/readcharmmpar1.3/toppar_water_ions_namd.str
Info: PARAMETERS             /home/morphinator_software/vmd-1.93/lib/plugins/noarch/tcl/readcharmmpar1.3/par_all36_cgenff.prm
Info: PARAMETERS             /home/morphinator_software/vmd-1.93/lib/plugins/noarch/tcl/readcharmmpar1.3/par_all36_na.prm
Info: USING ARITHMETIC MEAN TO COMBINE L-J SIGMA PARAMETERS
Info: SKIPPING rtf SECTION IN STREAM FILE
Info: SUMMARY OF PARAMETERS:
Info: 911 BONDS
Info: 2652 ANGLES
Info: 6440 DIHEDRAL
Info: 189 IMPROPER
Info: 6 CROSSTERM
Info: 350 VDW
Info: 6 VDW_PAIRS
Info: 0 NBTHOLE_PAIRS
Info: READING EXTRA BONDS FILE BAZ2BA-x481-pandda-input_altered-extrabonds.txt
Info: READING EXTRA BONDS FILE BAZ2BA-x481-pandda-input_altered-extrabonds-cis.txt
Info: READING EXTRA BONDS FILE BAZ2BA-x481-pandda-input_altered-extrabonds-chi.txt
Info: READ 44 EXTRA BONDS
Info: READ 44 EXTRA ANGLES
Info: READ 248 EXTRA DIHEDRALS
Info: READ 244 EXTRA IMPROPERS
Info: STRUCTURE SUMMARY:
Info: 1881 ATOMS
Info: 1946 BONDS
Info: 3497 ANGLES
Info: 5313 DIHEDRALS
Info: 543 IMPROPERS
Info: 113 CROSSTERMS
Info: 0 EXCLUSIONS
Info: 0 RIGID BONDS
Info: 1 GRIDS ACTIVE
Info: 5643 DEGREES OF FREEDOM
Info: 941 HYDROGEN GROUPS
Info: 4 ATOMS IN LARGEST HYDROGEN GROUP
Info: 941 MIGRATION GROUPS
Info: 4 ATOMS IN LARGEST MIGRATION GROUP
Info: TOTAL MASS = 13411.5 amu
Info: TOTAL CHARGE = 1.6652e-06 e
Info: ADDED 10334 IMPLICIT EXCLUSIONS
Info: NONBONDED TABLE R-SQUARED SPACING: 0.0625
Info: NONBONDED TABLE SIZE: 705 POINTS
Info: ORIGINAL ATOMS MINMAX IS 4.978 5.04 7.787  55.524 54.489 46.227
Info: ADJUSTED ATOMS MINMAX IS 10.1384 11.452 14.636  37.3146 47.592 40.206
Info: REMOVING COM VELOCITY 0.0172761 0.0434763 -0.156407
Info: Updated CUDA force table with 4096 elements.
Info: Updated CUDA LJ table with 350 x 350 elements.
Info: Found 254 unique exclusion lists needing 784 bytes
TCL: Minimizing for 2000 steps
ETITLE: TS BOND ANGLE DIHED IMPRP ELECT VDW BOUNDARY MISC KINETIC TOTAL TEMP POTENTIAL TOTAL3 TEMPAVG
ENERGY: 0 412.5581 418.9702 1119.9767 22.0634 -21.3505 -282.7034 0.0000 2721.2149 0.0000 4390.7295 0.0000 4390.7295 4390.7295 0.0000
ENERGY: 400 65.9874 251.1573 1047.2433 18.2329 -19.0681 -499.7723 0.0000 2701.2834 0.0000 3565.0639 0.0000 3565.0639 3565.0639 0.0000
ENERGY: 800 66.3724 246.8054 1036.8938 17.9818 -19.1645 -509.7282 0.0000 2692.9970 0.0000 3532.1578 0.0000 3532.1578 3532.1578 0.0000
ENERGY: 1200 65.5470 245.4901 1035.5094 17.8356 -19.1845 -509.0560 0.0000 2691.6935 0.0000 3527.8349 0.0000 3527.8349 3527.8349 0.0000
ENERGY: 1600 66.6929 246.4372 1036.6605 17.7615 -19.2299 -510.9542 0.0000 2689.6681 0.0000 3527.0361 0.0000 3527.0361 3527.0361 0.0000
ENERGY: 2000 65.8627 245.0800 1032.3125 17.8272 -19.2057 -510.1868 0.0000 2689.1598 0.0000 3520.8497 0.0000 3520.8497 3520.8497 0.0000
TCL: Running for 20000 steps
ETITLE: TS BOND ANGLE DIHED IMPRP ELECT VDW BOUNDARY MISC KINETIC TOTAL TEMP POTENTIAL TOTAL3 TEMPAVG
ENERGY: 2000 65.8627 245.0800 1032.3125 17.8272 -19.2057 -510.1868 0.0000 2689.1598 1671.8583 5192.7080 298.1809 3520.8497 5192.3647 298.1809
ENERGY: 6000 618.2996 925.9439 1216.1898 76.2960 -18.5395 -416.9875 0.0000 2748.1964 1639.7400 6789.1387 292.4525 5149.3987 6800.3528 292.2986
ENERGY: 10000 621.5409 940.8977 1217.2609 74.5168 -17.6654 -405.0686 0.0000 2751.6642 1676.2706 6859.4170 298.9678 5183.1464 6874.0489 295.8236
ENERGY: 14000 642.4758 957.8153 1218.6143 76.6300 -17.5225 -389.3366 0.0000 2764.3049 1655.4443 6908.4254 295.2534 5252.9812 6921.0277 299.3845
ENERGY: 18000 630.2605 932.8556 1232.4254 74.8206 -16.3932 -380.4069 0.0000 2766.3906 1710.8210 6950.7735 305.1300 5239.9525 6964.0527 303.1766
ENERGY: 22000 589.4605 979.9940 1216.3133 80.4462 -16.8485 -395.3544 0.0000 2752.0871 1737.1830 6943.2812 309.8317 5206.0982 6957.6434 301.2525
