Info: SIMULATION PARAMETERS:
Info: TIMESTEP               1
Info: NUMBER OF STEPS        0
Info: STEPS PER CYCLE        20
Info: FIRST LDB TIMESTEP     100
Info: LAST LDB TIMESTEP     -1
Info: HOM BACKGROUND SCALING 1
Info: MIN ATOMS PER PATCH    40
Info: INITIAL TEMPERATURE    298
Info: CENTER OF MASS MOVING INITIALLY? NO
Info: DIELECTRIC             80
Info: EXCLUDE                SCALED ONE-FOUR
Info: 1-4 ELECTROSTATICS SCALED BY 1
Info: MODIFIED 1-4 VDW PARAMETERS WILL BE USED
Info: DCD FILENAME           simulation-step1.dcd
Info: DCD FREQUENCY          1000
Info: DCD FIRST STEP         1000
Info: NO EXTENDED SYSTEM TRAJECTORY OUTPUT
Info: NO VELOCITY DCD OUTPUT
Info: NO FORCE DCD OUTPUT
Info: OUTPUT FILENAME        simulation-step1
Info: BINARY OUTPUT FILES WILL BE USED
Info: NO RESTART FILE
Info: SWITCHING ACTIVE
Info: SWITCHING ON           9
Info: SWITCHING OFF          10
Info: PAIRLIST DISTANCE      11
Info: PAIRLIST SHRINK RATE   0.01
Info: PAIRLIST GROW RATE     0.01
Info: PAIRLIST TRIGGER       0.3
Info: PAIRLISTS PER CYCLE    2
Info: PAIRLISTS ENABLED
Info: MARGIN                 0
Info: HYDROGEN GROUP CUTOFF  2.5
Info: PATCH DIMENSION        13.5
Info: ENERGY OUTPUT STEPS    100
Info: CROSSTERM ENERGY INCLUDED IN DIHEDRAL
Info: TIMING OUTPUT STEPS    1000
Info: PRESSURE OUTPUT STEPS  100
Info: GRID FORCE ACTIVE
Info:  Please include this reference in published work using
Info:  the Gridforce module of NAMD: David Wells, Volha Abramkina,
Info:  and Aleksei Aksimentiev, J. Chem. Phys. 127:125101-10 (2007).
Info: MGRIDFORCE key 0
Info:            Potfile BAZ2BA-x481-event_1_1-BDC_038_map,native-grid.dx
Info:            Scale 0.3 0.3 0.3
Info:            File BAZ2BA-x481-pandda-input-coot-1_altered-grid.pdb
Info:            Col O
Info:            ChargeCol B
Info:            VOffset 0 0 0
Info:            Continuous K1 FALSE
Info:            Continuous K2 FALSE
Info:            Continuous K3 FALSE
Info:            Volts FALSE
Info:            Gridforce-Lite FALSE
Info:            Gridforce-CheckSize TRUE
Info: LANGEVIN DYNAMICS ACTIVE
Info: LANGEVIN TEMPERATURE   298
Info: LANGEVIN USING BBK INTEGRATOR
Info: LANGEVIN DAMPING COEFFICIENT IS 5 INVERSE PS
Info: LANGEVIN DYNAMICS NOT APPLIED TO HYDROGENS
Info: USING VERLET I (r-RESPA) MTS SCHEME.
Info: C1 SPLITTING OF LONG RANGE ELECTROSTATICS
Info: PLACING ATOMS IN PATCHES BY HYDROGEN GROUPS
Info: RIGID BONDS TO HYDROGEN : WATER
Info:         ERROR TOLERANCE : 1e-08
Info:          MAX ITERATIONS : 100
Info: RIGID WATER USING SETTLE ALGORITHM
Info: NONBONDED FORCES EVALUATED EVERY 2 STEPS
Info: RANDOM NUMBER SEED     1651248571
Info: USE HYDROGEN BONDS?    NO
Info: COORDINATE PDB         BAZ2BA-x481-pandda-input-coot-1_altered_autopsf.pdb
Info: STRUCTURE FILE         BAZ2BA-x481-pandda-input-coot-1_altered_autopsf.psf
Info: PARAMETER file: CHARMM format!
Info: PARAMETERS             /home/morphinator_software/vmd-1.93/lib/plugins/noarch/tcl/readcharmmpar1.3/par_all36_lipid.prm
Info: PARAMETERS             /home/morphinator_software/vmd-1.93/lib/plugins/noarch/tcl/readcharmmpar1.3/par_all36_prot.prm
Info: PARAMETERS             /home/morphinator_software/vmd-1.93/lib/plugins/noarch/tcl/readcharmmpar1.3/par_all36_carb.prm
Info: PARAMETERS             /home/morphinator_software/vmd-1.93/lib/plugins/noarch/tcl/readcharmmpar1.3/toppar_water_ions_namd.str
Info: PARAMETERS             /home/morphinator_software/vmd-1.93/lib/plugins/noarch/tcl/readcharmmpar1.3/par_all36_cgenff.prm
Info: PARAMETERS             /home/morphinator_software/vmd-1.93/lib/plugins/noarch/tcl/readcharmmpar1.3/par_all36_na.prm
Info: USING ARITHMETIC MEAN TO COMBINE L-J SIGMA PARAMETERS
Info: SKIPPING rtf SECTION IN STREAM FILE
Info: SUMMARY OF PARAMETERS:
Info: 911 BONDS
Info: 2652 ANGLES
Info: 6440 DIHEDRAL
Info: 189 IMPROPER
Info: 6 CROSSTERM
Info: 350 VDW
Info: 6 VDW_PAIRS
Info: 0 NBTHOLE_PAIRS
Info: READING EXTRA BONDS FILE BAZ2BA-x481-pandda-input-coot-1_altered-extrabonds.txt
Info: READING EXTRA BONDS FILE BAZ2BA-x481-pandda-input-coot-1_altered-extrabonds-cis.txt
Info: READING EXTRA BONDS FILE BAZ2BA-x481-pandda-input-coot-1_altered-extrabonds-chi.txt
Info: READ 45 EXTRA BONDS
Info: READ 45 EXTRA ANGLES
Info: READ 248 EXTRA DIHEDRALS
Info: READ 244 EXTRA IMPROPERS
Info: STRUCTURE SUMMARY:
Info: 1881 ATOMS
Info: 1947 BONDS
Info: 3498 ANGLES
Info: 5313 DIHEDRALS
Info: 543 IMPROPERS
Info: 113 CROSSTERMS
Info: 0 EXCLUSIONS
Info: 0 RIGID BONDS
Info: 1 GRIDS ACTIVE
Info: 5643 DEGREES OF FREEDOM
Info: 941 HYDROGEN GROUPS
Info: 4 ATOMS IN LARGEST HYDROGEN GROUP
Info: 941 MIGRATION GROUPS
Info: 4 ATOMS IN LARGEST MIGRATION GROUP
Info: TOTAL MASS = 13411.5 amu
Info: TOTAL CHARGE = 1.6652e-06 e
Info: ADDED 10334 IMPLICIT EXCLUSIONS
Info: NONBONDED TABLE R-SQUARED SPACING: 0.0625
Info: NONBONDED TABLE SIZE: 705 POINTS
Info: ORIGINAL ATOMS MINMAX IS 4.978 5.04 7.787  55.524 54.489 46.227
Info: ADJUSTED ATOMS MINMAX IS 10.1001 11.4568 14.636  37.3189 47.5492 40.206
Info: REMOVING COM VELOCITY 0.098818 -0.145765 0.0603039
Info: Updated CUDA force table with 4096 elements.
Info: Updated CUDA LJ table with 350 x 350 elements.
Info: Found 254 unique exclusion lists needing 784 bytes
TCL: Minimizing for 2000 steps
ETITLE: TS BOND ANGLE DIHED IMPRP ELECT VDW BOUNDARY MISC KINETIC TOTAL TEMP POTENTIAL TOTAL3 TEMPAVG
ENERGY: 0 421.1095 435.0261 1118.9060 24.1688 -21.3208 -253.6611 0.0000 2715.4263 0.0000 4439.6548 0.0000 4439.6548 4439.6548 0.0000
ENERGY: 400 67.1408 255.4897 1049.4924 21.6274 -19.1342 -500.9485 0.0000 2699.6954 0.0000 3573.3630 0.0000 3573.3630 3573.3630 0.0000
ENERGY: 800 66.9397 251.4104 1040.9692 21.6321 -19.2132 -509.4578 0.0000 2693.1955 0.0000 3545.4759 0.0000 3545.4759 3545.4759 0.0000
ENERGY: 1200 66.8970 251.8173 1041.7214 21.1451 -19.2373 -509.1092 0.0000 2690.9159 0.0000 3544.1503 0.0000 3544.1503 3544.1503 0.0000
ENERGY: 1600 66.2289 248.9829 1037.5497 21.3527 -19.2290 -510.6782 0.0000 2690.5679 0.0000 3534.7750 0.0000 3534.7750 3534.7750 0.0000
ENERGY: 2000 66.2011 248.9114 1036.9316 21.4580 -19.2071 -511.0236 0.0000 2689.7105 0.0000 3532.9819 0.0000 3532.9819 3532.9819 0.0000
TCL: Running for 20000 steps
ETITLE: TS BOND ANGLE DIHED IMPRP ELECT VDW BOUNDARY MISC KINETIC TOTAL TEMP POTENTIAL TOTAL3 TEMPAVG
ENERGY: 2000 66.2011 248.9114 1036.9316 21.4580 -19.2071 -511.0236 0.0000 2689.7105 1713.6869 5246.6687 305.6411 3532.9819 5246.3253 305.6411
ENERGY: 6000 604.0464 963.5607 1243.9076 68.4435 -18.1914 -411.4511 0.0000 2746.0535 1689.0448 6885.4140 301.2462 5196.3692 6899.2192 297.4671
ENERGY: 10000 633.2047 951.3370 1227.8970 73.4662 -18.5528 -393.0441 0.0000 2751.4932 1631.7376 6857.5388 291.0252 5225.8011 6868.8583 295.5286
ENERGY: 14000 628.9945 874.0685 1233.4040 90.1358 -17.0304 -399.5857 0.0000 2750.1998 1650.8035 6810.9900 294.4257 5160.1865 6822.4227 294.3580
ENERGY: 18000 657.3237 978.5565 1196.3292 81.6866 -17.3660 -384.4311 0.0000 2758.7237 1658.4732 6929.2958 295.7936 5270.8226 6943.9702 300.7704
ENERGY: 22000 614.8342 905.2458 1227.1528 74.1958 -17.4916 -388.2390 0.0000 2752.3701 1675.7347 6843.8027 298.8723 5168.0680 6857.9529 295.7104
